tests/main/reference/hvdc_HvdcPV_HvdcPTanPhi/outputIIDM.xml
<?xml version="1.0" encoding="UTF-8"?>
<iidm:network xmlns:iidm="http://www.powsybl.org/schema/iidm/1_4" id="situ_12N" caseDate="2014-02-12T13:19:17+01:00" forecastDistance="0" sourceFormat="CIM1">
    <iidm:substation id="DOLONP6_S" name="DOLONP6" country="FR" tso="RTE">
        <iidm:voltageLevel id="NIREE6" name="NIREEP6" nominalV="225" lowVoltageLimit="220" highVoltageLimit="245" topologyKind="BUS_BREAKER">
            <iidm:busBreakerTopology>
                <iidm:bus id="NIREEP61" v="230.42470283990258" angle="-29.317888791644066"/>
            </iidm:busBreakerTopology>
            <iidm:load id="NIREEP6_NIREE1" name="NIREEP6_NIREE1" loadType="UNDEFINED" p0="184.61332003465" q0="17.041038967108069" bus="NIREEP61" connectableBus="NIREEP61" p="185.5784825276121" q="17.219686588625635"/>
            <iidm:load id="NIREEP6_NIREE4" name="NIREEP6_NIREE4" loadType="UNDEFINED" p0="0" q0="0" connectableBus="NIREEP61" p="0" q="0"/>
        </iidm:voltageLevel>
        <iidm:voltageLevel id="DOLONP6_S_VL6" name="DOLONP6" nominalV="225" lowVoltageLimit="220" highVoltageLimit="245" topologyKind="BUS_BREAKER">
            <iidm:busBreakerTopology>
                <iidm:bus id="DOLONP6_S_VL6_TN2" v="230.59218845967999" angle="-32.600033545738377"/>
                <iidm:bus id="DOLONP6_S_VL6_TN1" v="230.59218845967999" angle="-32.600033545738377"/>
                <iidm:switch id="DOLONP6_C21" kind="BREAKER" retained="true" open="false" bus1="DOLONP6_S_VL6_TN2" bus2="DOLONP6_S_VL6_TN1"/>
            </iidm:busBreakerTopology>
            <iidm:load id="DOLONP6_DOLON1" name="DOLONP6_DOLON1" loadType="UNDEFINED" p0="190.63861493814102" q0="18.171540752766465" bus="DOLONP6_S_VL6_TN1" connectableBus="DOLONP6_S_VL6_TN1" p="191.64537642851195" q="18.363975153213087"/>
            <iidm:load id="DOLONP6_DOLON4" name="DOLONP6_DOLON4" loadType="UNDEFINED" p0="0" q0="0" connectableBus="DOLONP6_S_VL6_TN1" p="0" q="0"/>
        </iidm:voltageLevel>
        <iidm:twoWindingsTransformer id="NIREEL61DOLON_ACLS" r="0.080000102519989014" x="8.3600072860717773" g="0" b="0" ratedU1="225" ratedU2="225" bus1="DOLONP6_S_VL6_TN1" connectableBus1="DOLONP6_S_VL6_TN1" voltageLevelId1="DOLONP6_S_VL6" bus2="NIREEP61" connectableBus2="NIREEP61" voltageLevelId2="NIREE6" p1="1.876619648803348" q1="4.2642136926750842" p2="-1.8765844161057001" q2="-4.2605318769625891">
            <iidm:phaseTapChanger lowTapPosition="0" tapPosition="17" targetDeadband="0" regulationMode="CURRENT_LIMITER" regulationValue="409.27999999999997" regulating="true">
                <iidm:terminalRef id="NIREEL61DOLON_ACLS" side="ONE"/>
                <iidm:step r="72.599555969238281" x="72.599563598632812" g="0" b="0" rho="1" alpha="-50"/>
                <iidm:step r="66.021034240722656" x="66.021034240722656" g="0" b="0" rho="1" alpha="-47.200000762939453"/>
                <iidm:step r="59.920902252197266" x="59.920902252197266" g="0" b="0" rho="1" alpha="-44.400001525878906"/>
                <iidm:step r="53.461677551269531" x="53.461669921875" g="0" b="0" rho="1" alpha="-41.5"/>
                <iidm:step r="48.318267822265625" x="48.318267822265625" g="0" b="0" rho="1" alpha="-38.599998474121094"/>
                <iidm:step r="42.338008880615234" x="42.3380126953125" g="0" b="0" rho="1" alpha="-35.599998474121094"/>
                <iidm:step r="37.433792114257812" x="37.433795928955078" g="0" b="0" rho="1" alpha="-32.5"/>
                <iidm:step r="32.649471282958984" x="32.649467468261719" g="0" b="0" rho="1" alpha="-29.399999618530273"/>
                <iidm:step r="29.30024528503418" x="29.300249099731445" g="0" b="0" rho="1" alpha="-26.299999237060547"/>
                <iidm:step r="24.874410629272461" x="24.874418258666992" g="0" b="0" rho="1" alpha="-23.100000381469727"/>
                <iidm:step r="20.6883544921875" x="20.688360214233398" g="0" b="0" rho="1" alpha="-19.799999237060547"/>
                <iidm:step r="16.980066299438477" x="16.980066299438477" g="0" b="0" rho="1" alpha="-16.600000381469727"/>
                <iidm:step r="13.272382736206055" x="13.272385597229004" g="0" b="0" rho="1" alpha="-13.300000190734863"/>
                <iidm:step r="10.760626792907715" x="10.76063060760498" g="0" b="0" rho="1" alpha="-10"/>
                <iidm:step r="8.4874477386474609" x="8.4874544143676758" g="0" b="0" rho="1" alpha="-6.6999998092651367"/>
                <iidm:step r="7.5307116508483887" x="7.5307121276855469" g="0" b="0" rho="1" alpha="-3.2999999523162842"/>
                <iidm:step r="6.9330453872680664" x="6.933046817779541" g="0" b="0" rho="1" alpha="0"/>
                <iidm:step r="7.8897914886474609" x="7.8897995948791504" g="0" b="0" rho="1" alpha="3.2999999523162842"/>
                <iidm:step r="9.2056188583374023" x="9.2056188583374023" g="0" b="0" rho="1" alpha="6.6999998092651367"/>
                <iidm:step r="11.119101524353027" x="11.119102478027344" g="0" b="0" rho="1" alpha="10"/>
                <iidm:step r="13.391666412353516" x="13.391663551330566" g="0" b="0" rho="1" alpha="13.300000190734863"/>
                <iidm:step r="16.860780715942383" x="16.860788345336914" g="0" b="0" rho="1" alpha="16.600000381469727"/>
                <iidm:step r="19.731012344360352" x="19.731014251708984" g="0" b="0" rho="1" alpha="19.799999237060547"/>
                <iidm:step r="24.874410629272461" x="24.874418258666992" g="0" b="0" rho="1" alpha="23.100000381469727"/>
                <iidm:step r="29.419538497924805" x="29.419538497924805" g="0" b="0" rho="1" alpha="26.299999237060547"/>
                <iidm:step r="34.562957763671875" x="34.562950134277344" g="0" b="0" rho="1" alpha="29.399999618530273"/>
                <iidm:step r="38.868904113769531" x="38.868900299072266" g="0" b="0" rho="1" alpha="32.5"/>
                <iidm:step r="44.012310028076172" x="44.012306213378906" g="0" b="0" rho="1" alpha="35.599998474121094"/>
                <iidm:step r="48.318267822265625" x="48.318267822265625" g="0" b="0" rho="1" alpha="38.599998474121094"/>
                <iidm:step r="54.896797180175781" x="54.896800994873047" g="0" b="0" rho="1" alpha="41.5"/>
                <iidm:step r="60.279369354248047" x="60.279376983642578" g="0" b="0" rho="1" alpha="44.400001525878906"/>
                <iidm:step r="67.456169128417969" x="67.456169128417969" g="0" b="0" rho="1" alpha="47.200000762939453"/>
                <iidm:step r="73.197837829589844" x="73.197845458984375" g="0" b="0" rho="1" alpha="50"/>
            </iidm:phaseTapChanger>
        </iidm:twoWindingsTransformer>
    </iidm:substation>
    <iidm:substation id="ULYSSP6_S" name="ULYSSP6" country="FR" tso="RTE">
        <iidm:voltageLevel id="ULYSSP6_S_VL6" name="ULYSSP6" nominalV="225" lowVoltageLimit="220" highVoltageLimit="245" topologyKind="BUS_BREAKER">
            <iidm:busBreakerTopology>
                <iidm:bus id="ULYSSP6_S_VL6_TN4" v="231.81446630521097" angle="-28.42333365235049"/>
                <iidm:bus id="ULYSSP6_S_VL6_TN3" v="231.81446630521097" angle="-28.42333365235049"/>
                <iidm:bus id="ULYSSP6_S_VL6_TN2" v="231.81446630521097" angle="-28.42333365235049"/>
                <iidm:bus id="ULYSSP6_S_VL6_TN1" v="231.81446630521097" angle="-28.42333365235049"/>
                <iidm:switch id="ULYSSP6_SW_ULYSS___6TRO_2AB__DJ" kind="BREAKER" retained="true" open="false" bus1="ULYSSP6_S_VL6_TN4" bus2="ULYSSP6_S_VL6_TN2"/>
                <iidm:switch id="ULYSSP6_SW_ULYSS___6TRO_1AB__DJ" kind="BREAKER" retained="true" open="false" bus1="ULYSSP6_S_VL6_TN2" bus2="ULYSSP6_S_VL6_TN1"/>
                <iidm:switch id="ULYSSP6_SW_ULYSS___6COUPL_B__DJ" kind="BREAKER" retained="true" open="false" bus1="ULYSSP6_S_VL6_TN4" bus2="ULYSSP6_S_VL6_TN2"/>
                <iidm:switch id="ULYSSP6_SW_ULYSS___6COUPL_A__DJ" kind="BREAKER" retained="true" open="false" bus1="ULYSSP6_S_VL6_TN3" bus2="ULYSSP6_S_VL6_TN1"/>
            </iidm:busBreakerTopology>
            <iidm:load id="ULYSSP6_ULYSS1" name="ULYSSP6_ULYSS1" loadType="UNDEFINED" p0="101.34473795564341" q0="10.270755911298043" bus="ULYSSP6_S_VL6_TN1" connectableBus="ULYSSP6_S_VL6_TN1" p="101.83022866433566" q="10.369395469830902"/>
            <iidm:load id="ULYSSP6_ULYSS4" name="ULYSSP6_ULYSS4" loadType="UNDEFINED" p0="0" q0="0" connectableBus="ULYSSP6_S_VL6_TN1" p="0" q="0"/>
            <iidm:shunt id="ULYSSP6_COND.11" name="ULYSSP6_COND.11" sectionCount="1" voltageRegulatorOn="false" bus="ULYSSP6_S_VL6_TN1" connectableBus="ULYSSP6_S_VL6_TN1" q="-84.919226888768762">
                <iidm:shuntLinearModel bPerSection="0.0015802469570189714" maximumSectionCount="1"/>
            </iidm:shunt>
        </iidm:voltageLevel>
    </iidm:substation>
    <iidm:substation id="AGAMEP6_S" name="AGAMEP6" country="FR" tso="RTE">
        <iidm:voltageLevel id="AGAMEP6_S_VL6" name="AGAMEP6" nominalV="225" lowVoltageLimit="220" highVoltageLimit="245" topologyKind="BUS_BREAKER">
            <iidm:busBreakerTopology>
                <iidm:bus id="AGAMEP6_S_VL6_TN4" v="230.16684821193491" angle="-28.765018354744228"/>
                <iidm:bus id="AGAMEP6_S_VL6_TN3" v="230.16684821193491" angle="-28.765018354744228"/>
                <iidm:bus id="AGAMEP6_S_VL6_TN2" v="230.16684821193491" angle="-28.765018354744228"/>
                <iidm:bus id="AGAMEP6_S_VL6_TN1" v="230.16684821193491" angle="-28.765018354744228"/>
                <iidm:switch id="AGAMEP6_SW_AGAME___6TRO_2AB__DJ" kind="BREAKER" retained="true" open="false" bus1="AGAMEP6_S_VL6_TN4" bus2="AGAMEP6_S_VL6_TN2"/>
                <iidm:switch id="AGAMEP6_SW_AGAME___6TRO_1AB__DJ" kind="BREAKER" retained="true" open="false" bus1="AGAMEP6_S_VL6_TN2" bus2="AGAMEP6_S_VL6_TN1"/>
                <iidm:switch id="AGAMEP6_SW_AGAME___6COUPL_B__DJ" kind="BREAKER" retained="true" open="false" bus1="AGAMEP6_S_VL6_TN4" bus2="AGAMEP6_S_VL6_TN2"/>
                <iidm:switch id="AGAMEP6_SW_AGAME___6COUPL_A__DJ" kind="BREAKER" retained="true" open="false" bus1="AGAMEP6_S_VL6_TN3" bus2="AGAMEP6_S_VL6_TN1"/>
            </iidm:busBreakerTopology>
            <iidm:load id="AGAMEP6_AGAME1" name="AGAMEP6_AGAME1" loadType="UNDEFINED" p0="200.91743567029621" q0="20.183907978163784" bus="AGAMEP6_S_VL6_TN1" connectableBus="AGAMEP6_S_VL6_TN1" p="201.87535430428619" q="20.376829337740514"/>
            <iidm:load id="AGAMEP6_AGAME4" name="AGAMEP6_AGAME4" loadType="UNDEFINED" p0="0" q0="0" connectableBus="AGAMEP6_S_VL6_TN1" p="0" q="0"/>
        </iidm:voltageLevel>
    </iidm:substation>
    <iidm:substation id="PRIAMP6_S" name="PRIAMP6" country="FR" tso="RTE">
        <iidm:voltageLevel id="PRIAMP6_S_VL6" name="PRIAMP7" nominalV="225" lowVoltageLimit="220" highVoltageLimit="245" topologyKind="BUS_BREAKER">
            <iidm:busBreakerTopology>
                <iidm:bus id="PRIAMP6_S_VL6_TN2" v="231.73759770199962" angle="-33.263902456039141"/>
                <iidm:bus id="PRIAMP6_S_VL6_TN1" v="231.73759770199962" angle="-33.263902456039141"/>
                <iidm:switch id="PRIAMP6_SW_Disj_Couplage_1_2" kind="BREAKER" retained="true" open="false" bus1="PRIAMP6_S_VL6_TN2" bus2="PRIAMP6_S_VL6_TN1"/>
            </iidm:busBreakerTopology>
            <iidm:load id="PRIAMP6_PRIAM1" name="PRIAMP6_PRIAM1" loadType="UNDEFINED" p0="221.65287835010776" q0="20.30165226482961" bus="PRIAMP6_S_VL6_TN1" connectableBus="PRIAMP6_S_VL6_TN1" p="222.85228413011572" q="20.521958901656941"/>
            <iidm:load id="PRIAMP6_PRIAM4" name="PRIAMP6_PRIAM4" loadType="UNDEFINED" p0="0" q0="0" connectableBus="PRIAMP6_S_VL6_TN1" p="0" q="0"/>
            <iidm:shunt id="PRIAMP6_COND.11" name="PRIAMP6_COND.11" sectionCount="1" voltageRegulatorOn="false" bus="PRIAMP6_S_VL6_TN1" connectableBus="PRIAMP6_S_VL6_TN1" q="-84.862918581560152">
                <iidm:shuntLinearModel bPerSection="0.0015802469570189714" maximumSectionCount="1"/>
            </iidm:shunt>
        </iidm:voltageLevel>
    </iidm:substation>
    <iidm:substation id="ACHILP6_S" name="ACHILP6" country="FR" tso="RTE">
        <iidm:voltageLevel id="ACHILP6_S_VL6" name="ACHILP6" nominalV="225" lowVoltageLimit="220" highVoltageLimit="245" topologyKind="BUS_BREAKER">
            <iidm:busBreakerTopology>
                <iidm:bus id="ACHILP6_S_VL6_TN3" v="229.94294881648713" angle="-34.130384420607328"/>
                <iidm:bus id="ACHILP6_S_VL6_TN2" v="229.94294881648713" angle="-34.130384420607328"/>
                <iidm:bus id="ACHILP6_S_VL6_TN1" v="229.94294881648713" angle="-34.130384420607328"/>
                <iidm:switch id="ACHILP6_C31" kind="BREAKER" retained="true" open="false" bus1="ACHILP6_S_VL6_TN3" bus2="ACHILP6_S_VL6_TN1"/>
                <iidm:switch id="ACHILP6_C21" kind="BREAKER" retained="true" open="false" bus1="ACHILP6_S_VL6_TN2" bus2="ACHILP6_S_VL6_TN1"/>
            </iidm:busBreakerTopology>
            <iidm:load id="ACHILP6_ACHIL5" name="ACHILP6_ACHIL5" loadType="UNDEFINED" p0="200.00777666141016" q0="20.001555362520222" bus="ACHILP6_S_VL6_TN3" connectableBus="ACHILP6_S_VL6_TN3" p="201.12894641380282" q="20.226426542763146"/>
            <iidm:load id="ACHILP6_ACHIL9" name="ACHILP6_ACHIL9" loadType="UNDEFINED" p0="0" q0="0" connectableBus="ACHILP6_S_VL6_TN1" p="0" q="0"/>
        </iidm:voltageLevel>
    </iidm:substation>
    <iidm:substation id="MYDONP6_S" name="MYDONP6" country="FR" tso="RTE">
        <iidm:voltageLevel id="PARIS" name="PARISP6" nominalV="225" lowVoltageLimit="220" highVoltageLimit="245" topologyKind="BUS_BREAKER">
            <iidm:busBreakerTopology>
                <iidm:bus id="PARISP61" v="230.10392070837435" angle="-31.311698603948049"/>
            </iidm:busBreakerTopology>
        </iidm:voltageLevel>
        <iidm:voltageLevel id="MYDONP6_S_VL6" name="MYDONP6" nominalV="225" lowVoltageLimit="220" highVoltageLimit="245" topologyKind="BUS_BREAKER">
            <iidm:busBreakerTopology>
                <iidm:bus id="MYDONP6_S_VL6_TN2" v="230.2137414243515" angle="-26.836948047438018"/>
                <iidm:bus id="MYDONP6_S_VL6_TN1" v="230.2137414243515" angle="-26.836948047438018"/>
                <iidm:switch id="MYDONP6_C21" kind="BREAKER" retained="true" open="false" bus1="MYDONP6_S_VL6_TN2" bus2="MYDONP6_S_VL6_TN1"/>
            </iidm:busBreakerTopology>
            <iidm:load id="MYDONP6_MYDON62" name="MYDONP6_MYDON62" loadType="UNDEFINED" p0="200.65073772401115" q0="20.130359274594966" bus="MYDONP6_S_VL6_TN2" connectableBus="MYDONP6_S_VL6_TN2" p="201.6694305256498" q="20.335279604269953"/>
            <iidm:load id="MYDONP6_MYDON63" name="MYDONP6_MYDON63" loadType="UNDEFINED" p0="0" q0="0" connectableBus="MYDONP6_S_VL6_TN2" p="0" q="0"/>
        </iidm:voltageLevel>
        <iidm:twoWindingsTransformer id="MYDONL61PARIS_ACLS" r="2.0000002384185791" x="10.600000381469727" g="0" b="3.2000003557186574e-05" ratedU1="225" ratedU2="225" bus1="PARISP61" connectableBus1="PARISP61" voltageLevelId1="PARIS" bus2="MYDONP6_S_VL6_TN1" connectableBus2="MYDONP6_S_VL6_TN1" voltageLevelId2="MYDONP6_S_VL6" p1="-152.08682076172374" q1="27.014807951467603" p2="152.97597117010642" q2="-23.996641448844358">
            <iidm:phaseTapChanger lowTapPosition="0" tapPosition="17" targetDeadband="0" regulationMode="CURRENT_LIMITER" regulationValue="409.27999999999997" regulating="true">
                <iidm:terminalRef id="MYDONL61PARIS_ACLS" side="ONE"/>
                <iidm:step r="92.824150085449219" x="92.824142456054688" g="0" b="0" rho="1" alpha="-42.799999237060547"/>
                <iidm:step r="81.69970703125" x="81.699714660644531" g="0" b="0" rho="1" alpha="-40.180000305175781"/>
                <iidm:step r="70.575233459472656" x="70.575225830078125" g="0" b="0" rho="1" alpha="-37.540000915527344"/>
                <iidm:step r="60.377796173095703" x="60.377780914306641" g="0" b="0" rho="1" alpha="-34.900001525878906"/>
                <iidm:step r="51.107398986816406" x="51.107387542724609" g="0" b="0" rho="1" alpha="-32.259998321533203"/>
                <iidm:step r="42.7640380859375" x="42.764041900634766" g="0" b="0" rho="1" alpha="-29.600000381469727"/>
                <iidm:step r="35.347732543945312" x="35.347740173339844" g="0" b="0" rho="1" alpha="-26.940000534057617"/>
                <iidm:step r="27.931425094604492" x="27.931427001953125" g="0" b="0" rho="1" alpha="-24.260000228881836"/>
                <iidm:step r="21.442148208618164" x="21.442150115966797" g="0" b="0" rho="1" alpha="-21.579999923706055"/>
                <iidm:step r="15.879915237426758" x="15.879919052124023" g="0" b="0" rho="1" alpha="-18.899999618530273"/>
                <iidm:step r="11.244712829589844" x="11.244710922241211" g="0" b="0" rho="1" alpha="-16.219999313354492"/>
                <iidm:step r="7.5365533828735352" x="7.536555290222168" g="0" b="0" rho="1" alpha="-13.520000457763672"/>
                <iidm:step r="3.8283939361572266" x="3.82839035987854" g="0" b="0" rho="1" alpha="-10.819999694824219"/>
                <iidm:step r="1.0472773313522339" x="1.0472782850265503" g="0" b="0" rho="1" alpha="-8.119999885559082"/>
                <iidm:step r="-0.80679643154144287" x="-0.80679941177368164" g="0" b="0" rho="1" alpha="-5.4200000762939453"/>
                <iidm:step r="-1.7338333129882812" x="-1.7338337898254395" g="0" b="0" rho="1" alpha="-2.7000000476837158"/>
                <iidm:step r="-1.7338333129882812" x="-1.7338337898254395" g="0" b="0" rho="1" alpha="0"/>
                <iidm:step r="-1.7338333129882812" x="-1.7338337898254395" g="0" b="0" rho="1" alpha="2.7000000476837158"/>
                <iidm:step r="-0.80679643154144287" x="-0.80679941177368164" g="0" b="0" rho="1" alpha="5.4200000762939453"/>
                <iidm:step r="1.0472773313522339" x="1.0472782850265503" g="0" b="0" rho="1" alpha="8.119999885559082"/>
                <iidm:step r="3.8283939361572266" x="3.82839035987854" g="0" b="0" rho="1" alpha="10.819999694824219"/>
                <iidm:step r="7.5365533828735352" x="7.536555290222168" g="0" b="0" rho="1" alpha="13.520000457763672"/>
                <iidm:step r="11.244712829589844" x="11.244710922241211" g="0" b="0" rho="1" alpha="16.219999313354492"/>
                <iidm:step r="15.879915237426758" x="15.879919052124023" g="0" b="0" rho="1" alpha="18.899999618530273"/>
                <iidm:step r="21.442148208618164" x="21.442150115966797" g="0" b="0" rho="1" alpha="21.579999923706055"/>
                <iidm:step r="27.931425094604492" x="27.931427001953125" g="0" b="0" rho="1" alpha="24.260000228881836"/>
                <iidm:step r="35.347732543945312" x="35.347740173339844" g="0" b="0" rho="1" alpha="26.940000534057617"/>
                <iidm:step r="42.7640380859375" x="42.764041900634766" g="0" b="0" rho="1" alpha="29.600000381469727"/>
                <iidm:step r="51.107398986816406" x="51.107387542724609" g="0" b="0" rho="1" alpha="32.259998321533203"/>
                <iidm:step r="60.377796173095703" x="60.377780914306641" g="0" b="0" rho="1" alpha="34.900001525878906"/>
                <iidm:step r="70.575233459472656" x="70.575225830078125" g="0" b="0" rho="1" alpha="37.540000915527344"/>
                <iidm:step r="81.69970703125" x="81.699714660644531" g="0" b="0" rho="1" alpha="40.180000305175781"/>
                <iidm:step r="92.824150085449219" x="92.824142456054688" g="0" b="0" rho="1" alpha="42.799999237060547"/>
            </iidm:phaseTapChanger>
        </iidm:twoWindingsTransformer>
    </iidm:substation>
    <iidm:substation id="CIRCEP6_S" name="CIRCEP6" country="FR" tso="RTE">
        <iidm:voltageLevel id="CIRCEP6_S_VL6" name="CIRCEP6" nominalV="225" lowVoltageLimit="220" highVoltageLimit="245" topologyKind="BUS_BREAKER">
            <iidm:busBreakerTopology>
                <iidm:bus id="CIRCEP6_S_VL6_TN3" v="231.18211410217779" angle="-22.321540487983544"/>
                <iidm:bus id="CIRCEP6_S_VL6_TN2" v="231.18211410217779" angle="-22.321540487983544"/>
                <iidm:bus id="CIRCEP6_S_VL6_TN1" v="231.18211410217779" angle="-22.321540487983544"/>
                <iidm:switch id="CIRCEP6_C32" kind="BREAKER" retained="true" open="false" bus1="CIRCEP6_S_VL6_TN3" bus2="CIRCEP6_S_VL6_TN2"/>
                <iidm:switch id="CIRCEP6_C21" kind="BREAKER" retained="true" open="false" bus1="CIRCEP6_S_VL6_TN2" bus2="CIRCEP6_S_VL6_TN1"/>
                <iidm:switch id="CIRCEP6_C31" kind="BREAKER" retained="true" open="false" bus1="CIRCEP6_S_VL6_TN3" bus2="CIRCEP6_S_VL6_TN1"/>
            </iidm:busBreakerTopology>
            <iidm:load id="CIRCEP6_CIRCE5" name="CIRCEP6_CIRCE5" loadType="UNDEFINED" p0="202.15805678670534" q0="20.433939961888399" bus="CIRCEP6_S_VL6_TN1" connectableBus="CIRCEP6_S_VL6_TN1" p="203.06513889740597" q="20.617725317711393"/>
            <iidm:load id="CIRCEP6_CIRCE9" name="CIRCEP6_CIRCE9" loadType="UNDEFINED" p0="0" q0="0" connectableBus="CIRCEP6_S_VL6_TN1" p="0" q="0"/>
            <iidm:shunt id="CIRCEP6_COND.11" name="CIRCEP6_COND.11" sectionCount="1" voltageRegulatorOn="false" bus="CIRCEP6_S_VL6_TN1" connectableBus="CIRCEP6_S_VL6_TN1" q="-84.456567071420892">
                <iidm:shuntLinearModel bPerSection="0.0015802469570189714" maximumSectionCount="1"/>
            </iidm:shunt>
        </iidm:voltageLevel>
    </iidm:substation>
    <iidm:substation id="HELENP6_S" name="HELENP6" country="FR" tso="RTE">
        <iidm:voltageLevel id="HELENP6_S_VL6" name="HELENP6" nominalV="225" lowVoltageLimit="220" highVoltageLimit="245" topologyKind="BUS_BREAKER">
            <iidm:busBreakerTopology>
                <iidm:bus id="HELENP6_S_VL6_TN2" v="231.18209183511846" angle="-22.321539735326912"/>
                <iidm:bus id="HELENP6_S_VL6_TN1" v="231.18209183511846" angle="-22.321539735326912"/>
                <iidm:switch id="HELENP6_SW_Disj_Couplage_1_2" kind="BREAKER" retained="true" open="false" bus1="HELENP6_S_VL6_TN2" bus2="HELENP6_S_VL6_TN1"/>
            </iidm:busBreakerTopology>
            <iidm:load id="HELENP6_HELEN5" name="HELENP6_HELEN5" loadType="UNDEFINED" p0="202.15803731783981" q0="20.433936026100533" bus="HELENP6_S_VL6_TN1" connectableBus="HELENP6_S_VL6_TN1" p="203.06511933903857" q="20.617721346088963"/>
            <iidm:shunt id="HELENP6_COND.11" name="HELENP6_COND.11" sectionCount="1" voltageRegulatorOn="false" bus="HELENP6_S_VL6_TN1" connectableBus="HELENP6_S_VL6_TN1" q="-84.456550802002212">
                <iidm:shuntLinearModel bPerSection="0.0015802469570189714" maximumSectionCount="1"/>
            </iidm:shunt>
        </iidm:voltageLevel>
    </iidm:substation>
    <iidm:substation id="ATHENP7_S" name="ATHENP7" country="FR" tso="RTE">
        <iidm:voltageLevel id="ATHENP6_S_VL6" nominalV="225" lowVoltageLimit="220" highVoltageLimit="245" topologyKind="BUS_BREAKER">
            <iidm:busBreakerTopology>
                <iidm:bus id="ATHENP6_S_VL6_TN1" v="230.61514667981447" angle="-20.844694617293115"/>
            </iidm:busBreakerTopology>
        </iidm:voltageLevel>
        <iidm:voltageLevel id="ATHENP7_S_VL7" name="ATHENP7" nominalV="380" lowVoltageLimit="390" highVoltageLimit="410" topologyKind="BUS_BREAKER">
            <iidm:busBreakerTopology>
                <iidm:bus id="ATHENP7_S_VL7_TN1" v="390.75128980336922" angle="-8.1470178578776"/>
            </iidm:busBreakerTopology>
            <iidm:generator id="ATHEN7ATHEN1_NGU_SM" name="ATHEN7ATHEN1" energySource="NUCLEAR" minP="398" maxP="1498" voltageRegulatorOn="true" targetP="762.85800067289142" targetV="390.75128980300326" targetQ="129.45613680827205" bus="ATHENP7_S_VL7_TN1" connectableBus="ATHENP7_S_VL7_TN1" p="-775.42641477367351" q="-167.38346455878207">
                <iidm:reactiveCapabilityCurve>
                    <iidm:point p="398" minQ="-5" maxQ="360"/>
                    <iidm:point p="1498" minQ="-220" maxQ="200"/>
                </iidm:reactiveCapabilityCurve>
            </iidm:generator>
            <iidm:load id="ATHEN1" name="ATHEN1" loadType="UNDEFINED" p0="0" q0="0" bus="ATHENP7_S_VL7_TN1" connectableBus="ATHENP7_S_VL7_TN1" p="0" q="0"/>
        </iidm:voltageLevel>
        <iidm:twoWindingsTransformer id="ATHENY761" r="0.4699999988079071" x="39.699996948242188" g="0" b="0" ratedU1="225" ratedU2="380" bus1="ATHENP6_S_VL6_TN1" connectableBus1="ATHENP6_S_VL6_TN1" voltageLevelId1="ATHENP6_S_VL6" bus2="ATHENP7_S_VL7_TN1" connectableBus2="ATHENP7_S_VL7_TN1" voltageLevelId2="ATHENP7_S_VL7" p1="-841.55472580633455" q1="91.278632185846391" p2="843.77478322779143" q2="96.245353091388665">
            <iidm:ratioTapChanger lowTapPosition="0" tapPosition="0" loadTapChangingCapabilities="false" targetV="238.43904113769531">
                <iidm:step r="0" x="0" g="0" b="0" rho="1"/>
                <iidm:step r="0" x="0" g="0" b="0" rho="0.95599997043609619"/>
                <iidm:step r="0" x="0" g="0" b="0" rho="0.91299998760223389"/>
            </iidm:ratioTapChanger>
        </iidm:twoWindingsTransformer>
    </iidm:substation>
    <iidm:substation id="HADESP7_S" name="HADESP7" country="FR" tso="RTE">
        <iidm:voltageLevel id="HADESP6_S_VL6" nominalV="225" lowVoltageLimit="220" highVoltageLimit="245" topologyKind="BUS_BREAKER">
            <iidm:busBreakerTopology>
                <iidm:bus id="HADESP6_S_VL6_TN1" v="230.41250845743343" angle="-13.861106167658392"/>
            </iidm:busBreakerTopology>
        </iidm:voltageLevel>
        <iidm:voltageLevel id="HADESP7_S_VL7" name="HADESP7" nominalV="380" lowVoltageLimit="390" highVoltageLimit="410" topologyKind="BUS_BREAKER">
            <iidm:busBreakerTopology>
                <iidm:bus id="HADESP7_S_VL7_TN1" v="391.31585452679502" angle="0"/>
                <iidm:bus id="HADESP7_S_VL7_TN2" v="391.31585452679502" angle="0"/>
                <iidm:switch id="HADESP7_SW_HADES___7COUPL_1__DJ" kind="BREAKER" retained="true" open="false" bus1="HADESP7_S_VL7_TN1" bus2="HADESP7_S_VL7_TN2"/>
            </iidm:busBreakerTopology>
            <iidm:generator id="HADES7HADES1_NGU_SM" name="HADES7HADES1" energySource="NUCLEAR" minP="0" maxP="917" voltageRegulatorOn="true" targetP="527.77248202197438" targetV="391.31585308922013" targetQ="100.23241552420848" bus="HADESP7_S_VL7_TN1" connectableBus="HADESP7_S_VL7_TN1" p="-536.44186707785025" q="-53.179939528354723">
                <iidm:reactiveCapabilityCurve>
                    <iidm:point p="0" minQ="-230" maxQ="320"/>
                    <iidm:point p="917" minQ="-300" maxQ="230"/>
                </iidm:reactiveCapabilityCurve>
            </iidm:generator>
            <iidm:generator id="HADES7HADES2_NGU_SM" name="HADES7HADES2" energySource="NUCLEAR" minP="0" maxP="917" voltageRegulatorOn="true" targetP="527.77248202197438" targetV="391.31581592763018" targetQ="100.23239904279535" bus="HADESP7_S_VL7_TN1" connectableBus="HADESP7_S_VL7_TN1" p="-536.44186707785036" q="-53.179923046941624">
                <iidm:reactiveCapabilityCurve>
                    <iidm:point p="0" minQ="-230" maxQ="320"/>
                    <iidm:point p="917" minQ="-300" maxQ="230"/>
                </iidm:reactiveCapabilityCurve>
            </iidm:generator>
            <iidm:load id="HADES1" name="HADES1" loadType="UNDEFINED" p0="0" q0="0" bus="HADESP7_S_VL7_TN1" connectableBus="HADESP7_S_VL7_TN1" p="0" q="0"/>
        </iidm:voltageLevel>
        <iidm:twoWindingsTransformer id="HADESY761" r="0.4699999988079071" x="39.699996948242188" g="0" b="0" ratedU1="225" ratedU2="380" bus1="HADESP6_S_VL6_TN1" connectableBus1="HADESP6_S_VL6_TN1" voltageLevelId1="HADESP6_S_VL6" bus2="HADESP7_S_VL7_TN1" connectableBus2="HADESP7_S_VL7_TN1" voltageLevelId2="HADESP7_S_VL7" p1="-917.71521449117404" q1="101.24586241228326" p2="920.36099308865539" q2="122.23797271994457">
            <iidm:ratioTapChanger lowTapPosition="0" tapPosition="0" loadTapChangingCapabilities="false" targetV="238.43904113769531">
                <iidm:step r="0" x="0" g="0" b="0" rho="1"/>
                <iidm:step r="0" x="0" g="0" b="0" rho="0.95599997043609619"/>
                <iidm:step r="0" x="0" g="0" b="0" rho="0.91299998760223389"/>
            </iidm:ratioTapChanger>
        </iidm:twoWindingsTransformer>
    </iidm:substation>
    <iidm:substation id="AJAXP7_S" name="AJAXP7" country="FR" tso="RTE">
        <iidm:voltageLevel id="AJAXP7_S_VL7" name="AJAXP7" nominalV="380" lowVoltageLimit="390" highVoltageLimit="410" topologyKind="BUS_BREAKER">
            <iidm:busBreakerTopology>
                <iidm:bus id="AJAXP7_S_VL7_TN1" v="409.7300574260276" angle="14.289087021584061"/>
            </iidm:busBreakerTopology>
            <iidm:load id="AJAXP7_AJAX5" name="AJAXP7_AJAX5" loadType="UNDEFINED" p0="0" q0="0" bus="AJAXP7_S_VL7_TN1" connectableBus="AJAXP7_S_VL7_TN1" p="0" q="0"/>
            <iidm:vscConverterStation id="AJAXP7_AJAX_TER_1" name="AJAX_TER_1" voltageRegulatorOn="true" lossFactor="1" voltageSetpoint="409.73005742585076" reactivePowerSetpoint="170" bus="AJAXP7_S_VL7_TN1" connectableBus="AJAXP7_S_VL7_TN1" p="-800" q="-182.96313272850276">
                <iidm:reactiveCapabilityCurve>
                    <iidm:point p="-1011" minQ="-300" maxQ="300"/>
                    <iidm:point p="0" minQ="-600" maxQ="400"/>
                    <iidm:point p="1011" minQ="-300" maxQ="300"/>
                </iidm:reactiveCapabilityCurve>
            </iidm:vscConverterStation>
            <iidm:lccConverterStation id="AJAXP7_AJAX_TER_2" name="AJAX_TER_2" lossFactor="0" powerFactor="-0.97815885089999999" bus="AJAXP7_S_VL7_TN1" connectableBus="AJAXP7_S_VL7_TN1" p="-800" q="-170.00000007183246"/>
        </iidm:voltageLevel>
    </iidm:substation>
    <iidm:substation id="HERAP7_S" name="HERAP7" country="FR" tso="RTE">
        <iidm:voltageLevel id="HERAP7_S_VL7" name="HERAP7" nominalV="380" lowVoltageLimit="390" highVoltageLimit="410" topologyKind="BUS_BREAKER">
            <iidm:busBreakerTopology>
                <iidm:bus id="HERAP7_S_VL7_TN1" v="403.8633647743905" angle="-23.345387405624582"/>
            </iidm:busBreakerTopology>
            <iidm:load id="HERAP7_HERA5" name="HERAP7_HERA5" loadType="UNDEFINED" p0="0" q0="0" bus="HERAP7_S_VL7_TN1" connectableBus="HERAP7_S_VL7_TN1" p="0" q="0"/>
            <iidm:vscConverterStation id="HERAP7_HERA_TER_1" name="HERA_TER_1" voltageRegulatorOn="true" lossFactor="1" voltageSetpoint="403.86336477401227" reactivePowerSetpoint="270" bus="HERAP7_S_VL7_TN1" connectableBus="HERAP7_S_VL7_TN1" p="800" q="-263.29840849534497">
                <iidm:reactiveCapabilityCurve>
                    <iidm:point p="-1011" minQ="-300" maxQ="300"/>
                    <iidm:point p="0" minQ="-600" maxQ="400"/>
                    <iidm:point p="1011" minQ="-300" maxQ="300"/>
                </iidm:reactiveCapabilityCurve>
            </iidm:vscConverterStation>
            <iidm:lccConverterStation id="HERAP7_HERA_TER_2" name="HERA_TER_2" lossFactor="0" powerFactor="0.94749227899999999" bus="HERAP7_S_VL7_TN1" connectableBus="HERAP7_S_VL7_TN1" p="800" q="-269.99999996432774"/>
        </iidm:voltageLevel>
    </iidm:substation>
    <iidm:line id="AJAXL71HADES_ACLS" r="1.9429999589920044" x="25.186002731323242" g1="0" b1="0.00011981700663454831" g2="0" b2="0.00011981700663454831" bus1="HADESP7_S_VL7_TN1" connectableBus1="HADESP7_S_VL7_TN1" voltageLevelId1="HADESP7_S_VL7" bus2="AJAXP7_S_VL7_TN1" connectableBus2="AJAXP7_S_VL7_TN1" voltageLevelId2="AJAXP7_S_VL7" p1="-1568.7600643577612" q1="13.520298239041967" p2="1599.9999999695567" q2="352.96313280064885">
        <iidm:currentLimits1 permanentLimit="2822"/>
        <iidm:currentLimits2 permanentLimit="2822">
            <iidm:temporaryLimit name="IT20" acceptableDuration="1200" value="3682"/>
            <iidm:temporaryLimit name="IT10" acceptableDuration="600" value="4258.00048828125"/>
            <iidm:temporaryLimit name="IT1" acceptableDuration="60"/>
        </iidm:currentLimits2>
    </iidm:line>
    <iidm:line id="HERAL71ATHEN_ACLS" r="1.9429999589920044" x="25.186002731323242" g1="0" b1="0.00011981700663454831" g2="0" b2="0.00011981700663454831" bus1="ATHENP7_S_VL7_TN1" connectableBus1="ATHENP7_S_VL7_TN1" voltageLevelId1="ATHENP7_S_VL7" bus2="HERAP7_S_VL7_TN1" connectableBus2="HERAP7_S_VL7_TN1" voltageLevelId2="HERAP7_S_VL7" p1="1634.1369336557887" q1="-128.63803909512529" p2="-1600.0000000030007" q2="533.29840846067191">
        <iidm:currentLimits1 permanentLimit="2822"/>
        <iidm:currentLimits2 permanentLimit="2822">
            <iidm:temporaryLimit name="IT20" acceptableDuration="1200" value="3682"/>
            <iidm:temporaryLimit name="IT10" acceptableDuration="600" value="4258.00048828125"/>
            <iidm:temporaryLimit name="IT1" acceptableDuration="60"/>
        </iidm:currentLimits2>
    </iidm:line>
    <iidm:line id="HADESL61CIRCE_ACLS" name="HADESL61CIRCE" r="4.559999942779541" x="33.779998779296875" g1="0" b1="0.0001177340091089718" g2="0" b2="0.00011775099847000092" bus1="CIRCEP6_S_VL6_TN1" connectableBus1="CIRCEP6_S_VL6_TN1" voltageLevelId1="CIRCEP6_S_VL6" bus2="HADESP6_S_VL6_TN1" connectableBus2="HADESP6_S_VL6_TN1" voltageLevelId2="HADESP6_S_VL6" p1="-224.87646395527156" q1="46.49117084632968" p2="229.42881490066503" q2="-25.311540716759662">
        <iidm:currentLimits1 permanentLimit="1890"/>
        <iidm:currentLimits2 permanentLimit="1890">
            <iidm:temporaryLimit name="IT20" acceptableDuration="1200" value="2171"/>
            <iidm:temporaryLimit name="IT10" acceptableDuration="600" value="2345"/>
            <iidm:temporaryLimit name="IT1" acceptableDuration="60"/>
        </iidm:currentLimits2>
    </iidm:line>
    <iidm:line id="HADESL62CIRCE_ACLS" name="CIRCEL61NIREE" r="4.559999942779541" x="33.779998779296875" g1="0" b1="0.0001177340091089718" g2="0" b2="0.00011775099847000092" bus1="CIRCEP6_S_VL6_TN1" connectableBus1="CIRCEP6_S_VL6_TN1" voltageLevelId1="CIRCEP6_S_VL6" bus2="HADESP6_S_VL6_TN1" connectableBus2="HADESP6_S_VL6_TN1" voltageLevelId2="HADESP6_S_VL6" p1="-224.87646395527156" q1="46.49117084632968" p2="229.42881490066503" q2="-25.311540716759662">
        <iidm:currentLimits1 permanentLimit="1890"/>
        <iidm:currentLimits2 permanentLimit="1890">
            <iidm:temporaryLimit name="IT20" acceptableDuration="1200" value="2171"/>
            <iidm:temporaryLimit name="IT10" acceptableDuration="600" value="2345"/>
            <iidm:temporaryLimit name="IT1" acceptableDuration="60"/>
        </iidm:currentLimits2>
    </iidm:line>
    <iidm:line id="CIRCEL61HELEN_ACLS" name="CIRCEL61HELEN" r="4.559999942779541" x="33.779998779296875" g1="0" b1="0.0001177340091089718" g2="0" b2="0.00011775099847000092" bus1="HELENP6_S_VL6_TN1" connectableBus1="HELENP6_S_VL6_TN1" voltageLevelId1="HELENP6_S_VL6" bus2="CIRCEP6_S_VL6_TN1" connectableBus2="CIRCEP6_S_VL6_TN1" voltageLevelId2="CIRCEP6_S_VL6" p1="2.0856595582541271e-07" q1="-6.2924653239317356" p2="-2.0856398205704174e-07" q2="-6.2930696983525323">
        <iidm:currentLimits1 permanentLimit="1890"/>
        <iidm:currentLimits2 permanentLimit="1890">
            <iidm:temporaryLimit name="IT20" acceptableDuration="1200" value="2171"/>
            <iidm:temporaryLimit name="IT10" acceptableDuration="600" value="2345"/>
            <iidm:temporaryLimit name="IT1" acceptableDuration="60"/>
        </iidm:currentLimits2>
    </iidm:line>
    <iidm:line id="MYDONL61HELEN_ACLS" name="MYDONL61HELEN" r="4.559999942779541" x="33.779998779296875" g1="0" b1="0.0001177340091089718" g2="0" b2="0.00011775099847000092" bus1="HELENP6_S_VL6_TN1" connectableBus1="HELENP6_S_VL6_TN1" voltageLevelId1="HELENP6_S_VL6" bus2="MYDONP6_S_VL6_TN1" connectableBus2="MYDONP6_S_VL6_TN1" voltageLevelId2="MYDONP6_S_VL6" p1="123.34388300824577" q1="-11.425364207663147" p2="-122.04358414153427" q2="8.5249176050554603">
        <iidm:currentLimits1 permanentLimit="1890"/>
        <iidm:currentLimits2 permanentLimit="1890">
            <iidm:temporaryLimit name="IT20" acceptableDuration="1200" value="2171"/>
            <iidm:temporaryLimit name="IT10" acceptableDuration="600" value="2345"/>
            <iidm:temporaryLimit name="IT1" acceptableDuration="60"/>
        </iidm:currentLimits2>
    </iidm:line>
    <iidm:line id="MYDONL62HELEN_ACLS" name="MYDONL62HELEN" r="4.559999942779541" x="33.779998779296875" g1="0" b1="0.0001177340091089718" g2="0" b2="0.00011775099847000092" bus1="HELENP6_S_VL6_TN2" connectableBus1="HELENP6_S_VL6_TN2" voltageLevelId1="HELENP6_S_VL6" bus2="MYDONP6_S_VL6_TN2" connectableBus2="MYDONP6_S_VL6_TN2" voltageLevelId2="MYDONP6_S_VL6" p1="123.34388300824577" q1="-11.425364207663147" p2="-122.04358414153427" q2="8.5249176050554603">
        <iidm:currentLimits1 permanentLimit="1890"/>
        <iidm:currentLimits2 permanentLimit="1890">
            <iidm:temporaryLimit name="IT20" acceptableDuration="1200" value="2171"/>
            <iidm:temporaryLimit name="IT10" acceptableDuration="600" value="2345"/>
            <iidm:temporaryLimit name="IT1" acceptableDuration="60"/>
        </iidm:currentLimits2>
    </iidm:line>
    <iidm:line id="ACHILL61PARIS_ACLS" name="ACHILL61PRIAM" r="4.559999942779541" x="33.779998779296875" g1="0" b1="0.0001177340091089718" g2="0" b2="0.00011775099847000092" bus1="PARISP61" connectableBus1="PARISP61" voltageLevelId1="PARIS" bus2="ACHILP6_S_VL6_TN1" connectableBus2="ACHILP6_S_VL6_TN1" voltageLevelId2="ACHILP6_S_VL6" p1="76.043410380862042" q1="-13.507403975733856" p2="-75.540841800970654" q2="4.7706825729461331">
        <iidm:currentLimits1 permanentLimit="1890"/>
        <iidm:currentLimits2 permanentLimit="1890">
            <iidm:temporaryLimit name="IT20" acceptableDuration="1200" value="2171"/>
            <iidm:temporaryLimit name="IT10" acceptableDuration="600" value="2345"/>
            <iidm:temporaryLimit name="IT1" acceptableDuration="60"/>
        </iidm:currentLimits2>
    </iidm:line>
    <iidm:line id="ACHILL62PARIS_ACLS" name="ACHILL62PRIAM" r="4.559999942779541" x="33.779998779296875" g1="0" b1="0.0001177340091089718" g2="0" b2="0.00011775099847000092" bus1="PARISP61" connectableBus1="PARISP61" voltageLevelId1="PARIS" bus2="ACHILP6_S_VL6_TN2" connectableBus2="ACHILP6_S_VL6_TN2" voltageLevelId2="ACHILP6_S_VL6" p1="76.043410380862042" q1="-13.507403975733856" p2="-75.540841800970654" q2="4.7706825729461331">
        <iidm:currentLimits1 permanentLimit="1890"/>
        <iidm:currentLimits2 permanentLimit="1890">
            <iidm:temporaryLimit name="IT20" acceptableDuration="1200" value="2171"/>
            <iidm:temporaryLimit name="IT10" acceptableDuration="600" value="2345"/>
            <iidm:temporaryLimit name="IT1" acceptableDuration="60"/>
        </iidm:currentLimits2>
    </iidm:line>
    <iidm:line id="ACHILL61PRIAM_ACLS" name="ACHILL61PRIAM" r="4.559999942779541" x="33.779998779296875" g1="0" b1="0.0001177340091089718" g2="0" b2="0.00011775099847000092" bus1="PRIAMP6_S_VL6_TN1" connectableBus1="PRIAMP6_S_VL6_TN1" voltageLevelId1="PRIAMP6_S_VL6" bus2="ACHILP6_S_VL6_TN1" connectableBus2="ACHILP6_S_VL6_TN1" voltageLevelId2="ACHILP6_S_VL6" p1="25.08410013688669" q1="2.7833150742476485" p2="-25.023631406244778" q2="-14.883895839977754">
        <iidm:currentLimits1 permanentLimit="1890"/>
        <iidm:currentLimits2 permanentLimit="1890">
            <iidm:temporaryLimit name="IT20" acceptableDuration="1200" value="2171"/>
            <iidm:temporaryLimit name="IT10" acceptableDuration="600" value="2345"/>
            <iidm:temporaryLimit name="IT1" acceptableDuration="60"/>
        </iidm:currentLimits2>
    </iidm:line>
    <iidm:line id="ACHILL62PRIAM_ACLS" name="ACHILL62PRIAM" r="4.559999942779541" x="33.779998779296875" g1="0" b1="0.0001177340091089718" g2="0" b2="0.00011775099847000092" bus1="PRIAMP6_S_VL6_TN2" connectableBus1="PRIAMP6_S_VL6_TN2" voltageLevelId1="PRIAMP6_S_VL6" bus2="ACHILP6_S_VL6_TN2" connectableBus2="ACHILP6_S_VL6_TN2" voltageLevelId2="ACHILP6_S_VL6" p1="25.08410013688669" q1="2.7833150742476485" p2="-25.023631406244778" q2="-14.883895839977754">
        <iidm:currentLimits1 permanentLimit="1890"/>
        <iidm:currentLimits2 permanentLimit="1890">
            <iidm:temporaryLimit name="IT20" acceptableDuration="1200" value="2171"/>
            <iidm:temporaryLimit name="IT10" acceptableDuration="600" value="2345"/>
            <iidm:temporaryLimit name="IT1" acceptableDuration="60"/>
        </iidm:currentLimits2>
    </iidm:line>
    <iidm:line id="AGAMEL61PRIAM_ACLS" name="AGAMEL61PRIAM" r="4.559999942779541" x="33.779998779296875" g1="0" b1="0.0001177340091089718" g2="0" b2="0.00011775099847000092" bus1="PRIAMP6_S_VL6_TN1" connectableBus1="PRIAMP6_S_VL6_TN1" voltageLevelId1="PRIAMP6_S_VL6" bus2="AGAMEP6_S_VL6_TN1" connectableBus2="AGAMEP6_S_VL6_TN1" voltageLevelId2="AGAMEP6_S_VL6" p1="-119.56538982861493" q1="25.458425005524681" p2="120.86505398379512" q2="-28.391307232758312">
        <iidm:currentLimits1 permanentLimit="1890"/>
        <iidm:currentLimits2 permanentLimit="1890">
            <iidm:temporaryLimit name="IT20" acceptableDuration="1200" value="2171"/>
            <iidm:temporaryLimit name="IT10" acceptableDuration="600" value="2345"/>
            <iidm:temporaryLimit name="IT1" acceptableDuration="60"/>
        </iidm:currentLimits2>
    </iidm:line>
    <iidm:line id="AGAMEL62PRIAM_ACLS" name="AGAMEL62PRIAM" r="4.559999942779541" x="33.779998779296875" g1="0" b1="0.0001177340091089718" g2="0" b2="0.00011775099847000092" bus1="PRIAMP6_S_VL6_TN2" connectableBus1="PRIAMP6_S_VL6_TN2" voltageLevelId1="PRIAMP6_S_VL6" bus2="AGAMEP6_S_VL6_TN2" connectableBus2="AGAMEP6_S_VL6_TN2" voltageLevelId2="AGAMEP6_S_VL6" p1="-119.56538982861493" q1="25.458425005524681" p2="120.86505398379512" q2="-28.391307232758312">
        <iidm:currentLimits1 permanentLimit="1890"/>
        <iidm:currentLimits2 permanentLimit="1890">
            <iidm:temporaryLimit name="IT20" acceptableDuration="1200" value="2171"/>
            <iidm:temporaryLimit name="IT10" acceptableDuration="600" value="2345"/>
            <iidm:temporaryLimit name="IT1" acceptableDuration="60"/>
        </iidm:currentLimits2>
    </iidm:line>
    <iidm:line id="AGAMEL61ULYSS_ACLS" name="AGAMEL61ULYSS" r="4.559999942779541" x="33.779998779296875" g1="0" b1="0.0001177340091089718" g2="0" b2="0.00011775099847000092" bus1="ULYSSP6_S_VL6_TN1" connectableBus1="ULYSSP6_S_VL6_TN1" voltageLevelId1="ULYSSP6_S_VL6" bus2="AGAMEP6_S_VL6_TN1" connectableBus2="AGAMEP6_S_VL6_TN1" voltageLevelId2="AGAMEP6_S_VL6" p1="10.75355986724861" q1="3.5564088555702402" p2="-10.735458627617374" q2="-15.987169204703831">
        <iidm:currentLimits1 permanentLimit="1890"/>
        <iidm:currentLimits2 permanentLimit="1890">
            <iidm:temporaryLimit name="IT20" acceptableDuration="1200" value="2171"/>
            <iidm:temporaryLimit name="IT10" acceptableDuration="600" value="2345"/>
            <iidm:temporaryLimit name="IT1" acceptableDuration="60"/>
        </iidm:currentLimits2>
    </iidm:line>
    <iidm:line id="AGAMEL62ULYSS_ACLS" name="AGAMEL62ULYSS" r="4.559999942779541" x="33.779998779296875" g1="0" b1="0.0001177340091089718" g2="0" b2="0.00011775099847000092" bus1="ULYSSP6_S_VL6_TN2" connectableBus1="ULYSSP6_S_VL6_TN2" voltageLevelId1="ULYSSP6_S_VL6" bus2="AGAMEP6_S_VL6_TN2" connectableBus2="AGAMEP6_S_VL6_TN2" voltageLevelId2="AGAMEP6_S_VL6" p1="10.75355986724861" q1="3.5564088555702402" p2="-10.735458627617374" q2="-15.987169204703831">
        <iidm:currentLimits1 permanentLimit="1890"/>
        <iidm:currentLimits2 permanentLimit="1890">
            <iidm:temporaryLimit name="IT20" acceptableDuration="1200" value="2171"/>
            <iidm:temporaryLimit name="IT10" acceptableDuration="600" value="2345"/>
            <iidm:temporaryLimit name="IT1" acceptableDuration="60"/>
        </iidm:currentLimits2>
    </iidm:line>
    <iidm:line id="DOLONL61ULYSS_ACLS" name="DOLONL61ULYSS" r="4.559999942779541" x="33.779998779296875" g1="0" b1="0.0001177340091089718" g2="0" b2="0.00011775099847000092" bus1="ULYSSP6_S_VL6_TN1" connectableBus1="ULYSSP6_S_VL6_TN1" voltageLevelId1="ULYSSP6_S_VL6" bus2="DOLONP6_S_VL6_TN1" connectableBus2="DOLONP6_S_VL6_TN1" voltageLevelId2="DOLONP6_S_VL6" p1="114.85935587251093" q1="-9.2412617314241992" p2="-113.73915461908122" q2="4.951665315750331">
        <iidm:currentLimits1 permanentLimit="1890"/>
        <iidm:currentLimits2 permanentLimit="1890">
            <iidm:temporaryLimit name="IT20" acceptableDuration="1200" value="2171"/>
            <iidm:temporaryLimit name="IT10" acceptableDuration="600" value="2345"/>
            <iidm:temporaryLimit name="IT1" acceptableDuration="60"/>
        </iidm:currentLimits2>
    </iidm:line>
    <iidm:line id="DOLONL62ULYSS_ACLS" name="DOLONL62ULYSS" r="4.559999942779541" x="33.779998779296875" g1="0" b1="0.0001177340091089718" g2="0" b2="0.00011775099847000092" bus1="ULYSSP6_S_VL6_TN2" connectableBus1="ULYSSP6_S_VL6_TN2" voltageLevelId1="ULYSSP6_S_VL6" bus2="DOLONP6_S_VL6_TN2" connectableBus2="DOLONP6_S_VL6_TN2" voltageLevelId2="DOLONP6_S_VL6" p1="114.85935587251093" q1="-9.2412617314241992" p2="-113.73915461908122" q2="4.951665315750331">
        <iidm:currentLimits1 permanentLimit="1890"/>
        <iidm:currentLimits2 permanentLimit="1890">
            <iidm:temporaryLimit name="IT20" acceptableDuration="1200" value="2171"/>
            <iidm:temporaryLimit name="IT10" acceptableDuration="600" value="2345"/>
            <iidm:temporaryLimit name="IT1" acceptableDuration="60"/>
        </iidm:currentLimits2>
    </iidm:line>
    <iidm:line id="ATHENL61ULYSS_ACLS" name="ATHENL61ULYSS" r="4.559999942779541" x="33.779998779296875" g1="0" b1="0.0001177340091089718" g2="0" b2="0.00011775099847000092" bus1="ULYSSP6_S_VL6_TN1" connectableBus1="ULYSSP6_S_VL6_TN1" voltageLevelId1="ULYSSP6_S_VL6" bus2="ATHENP6_S_VL6_TN1" connectableBus2="ATHENP6_S_VL6_TN1" voltageLevelId2="ATHENP6_S_VL6" p1="-202.06364208774676" q1="43.004600612900937" p2="205.73480300218861" q2="-28.398203634016795">
        <iidm:currentLimits1 permanentLimit="1890"/>
        <iidm:currentLimits2 permanentLimit="1890">
            <iidm:temporaryLimit name="IT20" acceptableDuration="1200" value="2171"/>
            <iidm:temporaryLimit name="IT10" acceptableDuration="600" value="2345"/>
            <iidm:temporaryLimit name="IT1" acceptableDuration="60"/>
        </iidm:currentLimits2>
    </iidm:line>
    <iidm:line id="ATHENL62ULYSS_ACLS" name="ATHENL62ULYSS" r="4.559999942779541" x="33.779998779296875" g1="0" b1="0.0001177340091089718" g2="0" b2="0.00011775099847000092" bus1="ULYSSP6_S_VL6_TN2" connectableBus1="ULYSSP6_S_VL6_TN2" voltageLevelId1="ULYSSP6_S_VL6" bus2="ATHENP6_S_VL6_TN1" connectableBus2="ATHENP6_S_VL6_TN1" voltageLevelId2="ATHENP6_S_VL6" p1="-202.06364208774676" q1="43.004600612900937" p2="205.73480300218861" q2="-28.398203634016795">
        <iidm:currentLimits1 permanentLimit="1890"/>
        <iidm:currentLimits2 permanentLimit="1890">
            <iidm:temporaryLimit name="IT20" acceptableDuration="1200" value="2171"/>
            <iidm:temporaryLimit name="IT10" acceptableDuration="600" value="2345"/>
            <iidm:temporaryLimit name="IT1" acceptableDuration="60"/>
        </iidm:currentLimits2>
    </iidm:line>
    <iidm:line id="MYDONL61NIREE_ACLS" name="MYDONL61NIREE" r="4.559999942779541" x="33.779998779296875" g1="0" b1="0.0001177340091089718" g2="0" b2="0.00011775099847000092" bus1="NIREEP61" connectableBus1="NIREEP61" voltageLevelId1="NIREE6" bus2="MYDONP6_S_VL6_TN1" connectableBus2="MYDONP6_S_VL6_TN1" voltageLevelId2="MYDONP6_S_VL6" p1="-66.374018681083129" q1="5.6197313259256951" p2="66.764479178020736" q2="-15.219002958063482">
        <iidm:currentLimits1 permanentLimit="1890"/>
        <iidm:currentLimits2 permanentLimit="1890">
            <iidm:temporaryLimit name="IT20" acceptableDuration="1200" value="2171"/>
            <iidm:temporaryLimit name="IT10" acceptableDuration="600" value="2345"/>
            <iidm:temporaryLimit name="IT1" acceptableDuration="60"/>
        </iidm:currentLimits2>
    </iidm:line>
    <iidm:line id="MYDONL62NIREE_ACLS" name="MYDONL62NIREE" r="4.559999942779541" x="33.779998779296875" g1="0" b1="0.0001177340091089718" g2="0" b2="0.00011775099847000092" bus1="NIREEP61" connectableBus1="NIREEP61" voltageLevelId1="NIREE6" bus2="MYDONP6_S_VL6_TN2" connectableBus2="MYDONP6_S_VL6_TN2" voltageLevelId2="MYDONP6_S_VL6" p1="-66.374018681083129" q1="5.6197313259256951" p2="66.764479178020736" q2="-15.219002958063482">
        <iidm:currentLimits1 permanentLimit="1890"/>
        <iidm:currentLimits2 permanentLimit="1890">
            <iidm:temporaryLimit name="IT20" acceptableDuration="1200" value="2171"/>
            <iidm:temporaryLimit name="IT10" acceptableDuration="600" value="2345"/>
            <iidm:temporaryLimit name="IT1" acceptableDuration="60"/>
        </iidm:currentLimits2>
    </iidm:line>
    <iidm:line id="ULYSSL61NIREE_ACLS" name="ULYSSL61NIREE" r="4.559999942779541" x="33.779998779296875" g1="0" b1="0.0001177340091089718" g2="0" b2="0.00011775099847000092" bus1="NIREEP61" connectableBus1="NIREEP61" voltageLevelId1="NIREE6" bus2="ULYSSP6_S_VL6_TN1" connectableBus2="ULYSSP6_S_VL6_TN1" voltageLevelId2="ULYSSP6_S_VL6" p1="-25.476930374804507" q1="-12.099308678405009" p2="25.535612015708558" q2="-0.044832026237462408">
        <iidm:currentLimits1 permanentLimit="1890"/>
        <iidm:currentLimits2 permanentLimit="1890">
            <iidm:temporaryLimit name="IT20" acceptableDuration="1200" value="2171"/>
            <iidm:temporaryLimit name="IT10" acceptableDuration="600" value="2345"/>
            <iidm:temporaryLimit name="IT1" acceptableDuration="60"/>
        </iidm:currentLimits2>
    </iidm:line>
    <iidm:line id="ULYSSL62NIREE_ACLS" name="ULYSSL62NIREE" r="4.559999942779541" x="33.779998779296875" g1="0" b1="0.0001177340091089718" g2="0" b2="0.00011775099847000092" bus1="NIREEP61" connectableBus1="NIREEP61" voltageLevelId1="NIREE6" bus2="ULYSSP6_S_VL6_TN2" connectableBus2="ULYSSP6_S_VL6_TN2" voltageLevelId2="ULYSSP6_S_VL6" p1="-25.476930374804507" q1="-12.099308678405009" p2="25.535612015708558" q2="-0.044832026237462408">
        <iidm:currentLimits1 permanentLimit="1890"/>
        <iidm:currentLimits2 permanentLimit="1890">
            <iidm:temporaryLimit name="IT20" acceptableDuration="1200" value="2171"/>
            <iidm:temporaryLimit name="IT10" acceptableDuration="600" value="2345"/>
            <iidm:temporaryLimit name="IT1" acceptableDuration="60"/>
        </iidm:currentLimits2>
    </iidm:line>
    <iidm:line id="ATHENL71HADES_ACLS" r="1.9429999589920044" x="25.186002731323242" g1="0" b1="0.00011981700663454831" g2="0" b2="0.00011981700663454831" bus1="HADESP7_S_VL7_TN1" connectableBus1="HADESP7_S_VL7_TN1" voltageLevelId1="HADESP7_S_VL7" bus2="ATHENP7_S_VL7_TN1" connectableBus2="ATHENP7_S_VL7_TN1" voltageLevelId2="ATHENP7_S_VL7" p1="860.64140269573124" q1="-14.699203952474846" p2="-851.24265100211608" q2="99.888075281165328">
        <iidm:currentLimits1 permanentLimit="2822"/>
        <iidm:currentLimits2 permanentLimit="2822">
            <iidm:temporaryLimit name="IT20" acceptableDuration="1200" value="3682"/>
            <iidm:temporaryLimit name="IT10" acceptableDuration="600" value="4258.00048828125"/>
            <iidm:temporaryLimit name="IT1" acceptableDuration="60"/>
        </iidm:currentLimits2>
    </iidm:line>
    <iidm:line id="ATHENL72HADES_ACLS" r="1.9429999589920044" x="25.186002731323242" g1="0" b1="0.00011981700663454831" g2="0" b2="0.00011981700663454831" bus1="HADESP7_S_VL7_TN1" connectableBus1="HADESP7_S_VL7_TN1" voltageLevelId1="HADESP7_S_VL7" bus2="ATHENP7_S_VL7_TN1" connectableBus2="ATHENP7_S_VL7_TN1" voltageLevelId2="ATHENP7_S_VL7" p1="860.64140269573124" q1="-14.699203952474846" p2="-851.24265100211608" q2="99.888075281165328">
        <iidm:currentLimits1 permanentLimit="2822"/>
        <iidm:currentLimits2 permanentLimit="2822">
            <iidm:temporaryLimit name="IT20" acceptableDuration="1200" value="3682"/>
            <iidm:temporaryLimit name="IT10" acceptableDuration="600" value="4258.00048828125"/>
            <iidm:temporaryLimit name="IT1" acceptableDuration="60"/>
        </iidm:currentLimits2>
    </iidm:line>
    <iidm:line id="ATHENL61AGAME_ACLS" name="ATHENL61AGAME" r="4.559999942779541" x="33.779998779296875" g1="0" b1="0.0001177340091089718" g2="0" b2="0.00011775099847000092" bus1="AGAMEP6_S_VL6_TN1" connectableBus1="AGAMEP6_S_VL6_TN1" voltageLevelId1="AGAMEP6_S_VL6" bus2="ATHENP6_S_VL6_TN1" connectableBus2="ATHENP6_S_VL6_TN1" voltageLevelId2="ATHENP6_S_VL6" p1="-211.06727250859905" q1="34.190061771097248" p2="215.04255990097852" q2="-17.241112458906326">
        <iidm:currentLimits1 permanentLimit="1890"/>
        <iidm:currentLimits2 permanentLimit="1890">
            <iidm:temporaryLimit name="IT20" acceptableDuration="1200" value="2171"/>
            <iidm:temporaryLimit name="IT10" acceptableDuration="600" value="2345"/>
            <iidm:temporaryLimit name="IT1" acceptableDuration="60"/>
        </iidm:currentLimits2>
    </iidm:line>
    <iidm:line id="ATHENL62AGAME_ACLS" name="ATHENL62AGAME" r="4.559999942779541" x="33.779998779296875" g1="0" b1="0.0001177340091089718" g2="0" b2="0.00011775099847000092" bus1="AGAMEP6_S_VL6_TN2" connectableBus1="AGAMEP6_S_VL6_TN2" voltageLevelId1="AGAMEP6_S_VL6" bus2="ATHENP6_S_VL6_TN1" connectableBus2="ATHENP6_S_VL6_TN1" voltageLevelId2="ATHENP6_S_VL6" p1="-211.06727250859905" q1="34.190061771097248" p2="215.04255990097852" q2="-17.241112458906326">
        <iidm:currentLimits1 permanentLimit="1890"/>
        <iidm:currentLimits2 permanentLimit="1890">
            <iidm:temporaryLimit name="IT20" acceptableDuration="1200" value="2171"/>
            <iidm:temporaryLimit name="IT10" acceptableDuration="600" value="2345"/>
            <iidm:temporaryLimit name="IT1" acceptableDuration="60"/>
        </iidm:currentLimits2>
    </iidm:line>
    <iidm:line id="HADESL61HELEN_ACLS" name="HADESL61HELEN" r="4.559999942779541" x="33.779998779296875" g1="0" b1="0.0001177340091089718" g2="0" b2="0.00011775099847000092" bus1="HELENP6_S_VL6_TN1" connectableBus1="HELENP6_S_VL6_TN1" voltageLevelId1="HELENP6_S_VL6" bus2="HADESP6_S_VL6_TN1" connectableBus2="HADESP6_S_VL6_TN1" voltageLevelId2="HADESP6_S_VL6" p1="-224.87644278037715" q1="46.491011601902926" p2="229.42879234492213" q2="-25.311390489381925">
        <iidm:currentLimits1 permanentLimit="1890"/>
        <iidm:currentLimits2 permanentLimit="1890">
            <iidm:temporaryLimit name="IT20" acceptableDuration="1200" value="2171"/>
            <iidm:temporaryLimit name="IT10" acceptableDuration="600" value="2345"/>
            <iidm:temporaryLimit name="IT1" acceptableDuration="60"/>
        </iidm:currentLimits2>
    </iidm:line>
    <iidm:line id="HADESL62HELEN_ACLS" name="HADESL62HELEN" r="4.559999942779541" x="33.779998779296875" g1="0" b1="0.0001177340091089718" g2="0" b2="0.00011775099847000092" bus1="HELENP6_S_VL6_TN1" connectableBus1="HELENP6_S_VL6_TN1" voltageLevelId1="HELENP6_S_VL6" bus2="HADESP6_S_VL6_TN1" connectableBus2="HADESP6_S_VL6_TN1" voltageLevelId2="HADESP6_S_VL6" p1="-224.87644278037715" q1="46.491011601902926" p2="229.42879234492213" q2="-25.311390489381925">
        <iidm:currentLimits1 permanentLimit="1890"/>
        <iidm:currentLimits2 permanentLimit="1890">
            <iidm:temporaryLimit name="IT20" acceptableDuration="1200" value="2171"/>
            <iidm:temporaryLimit name="IT10" acceptableDuration="600" value="2345"/>
            <iidm:temporaryLimit name="IT1" acceptableDuration="60"/>
        </iidm:currentLimits2>
    </iidm:line>
    <iidm:line id="DOLONL61PRIAM_ACLS" name="DOLONL61PRIAM" r="4.559999942779541" x="33.779998779296875" g1="0" b1="0.0001177340091089718" g2="0" b2="0.00011775099847000092" bus1="PRIAMP6_S_VL6_TN1" connectableBus1="PRIAMP6_S_VL6_TN1" voltageLevelId1="PRIAMP6_S_VL6" bus2="DOLONP6_S_VL6_TN1" connectableBus2="DOLONP6_S_VL6_TN1" voltageLevelId2="DOLONP6_S_VL6" p1="-16.944852373755555" q1="3.9287397641583128" p2="16.97815658014045" q2="-16.265759735385512">
        <iidm:currentLimits1 permanentLimit="1890"/>
        <iidm:currentLimits2 permanentLimit="1890">
            <iidm:temporaryLimit name="IT20" acceptableDuration="1200" value="2171"/>
            <iidm:temporaryLimit name="IT10" acceptableDuration="600" value="2345"/>
            <iidm:temporaryLimit name="IT1" acceptableDuration="60"/>
        </iidm:currentLimits2>
    </iidm:line>
    <iidm:line id="DOLONL62PRIAM_ACLS" name="DOLONL62PRIAM" r="4.559999942779541" x="33.779998779296875" g1="0" b1="0.0001177340091089718" g2="0" b2="0.00011775099847000092" bus1="PRIAMP6_S_VL6_TN1" connectableBus1="PRIAMP6_S_VL6_TN1" voltageLevelId1="PRIAMP6_S_VL6" bus2="DOLONP6_S_VL6_TN1" connectableBus2="DOLONP6_S_VL6_TN1" voltageLevelId2="DOLONP6_S_VL6" p1="-16.944852373755555" q1="3.9287397641583128" p2="16.97815658014045" q2="-16.265759735385512">
        <iidm:currentLimits1 permanentLimit="1890"/>
        <iidm:currentLimits2 permanentLimit="1890">
            <iidm:temporaryLimit name="IT20" acceptableDuration="1200" value="2171"/>
            <iidm:temporaryLimit name="IT10" acceptableDuration="600" value="2345"/>
            <iidm:temporaryLimit name="IT1" acceptableDuration="60"/>
        </iidm:currentLimits2>
    </iidm:line>
    <iidm:line id="MYDONL61CIRCE_ACLS" name="MYDONL61CIRCE" r="4.559999942779541" x="33.779998779296875" g1="0" b1="0.0001177340091089718" g2="0" b2="0.00011775099847000092" bus1="CIRCEP6_S_VL6_TN1" connectableBus1="CIRCEP6_S_VL6_TN1" voltageLevelId1="CIRCEP6_S_VL6" bus2="MYDONP6_S_VL6_TN1" connectableBus2="MYDONP6_S_VL6_TN1" voltageLevelId2="MYDONP6_S_VL6" p1="123.34389461252186" q1="-11.425215115981318" p2="-122.04359588370379" q2="8.5247662797434778">
        <iidm:currentLimits1 permanentLimit="1890"/>
        <iidm:currentLimits2 permanentLimit="1890">
            <iidm:temporaryLimit name="IT20" acceptableDuration="1200" value="2171"/>
            <iidm:temporaryLimit name="IT10" acceptableDuration="600" value="2345"/>
            <iidm:temporaryLimit name="IT1" acceptableDuration="60"/>
        </iidm:currentLimits2>
    </iidm:line>
    <iidm:line id="MYDONL62CIRCE_ACLS" name="MYDONL62CIRCE" r="4.559999942779541" x="33.779998779296875" g1="0" b1="0.0001177340091089718" g2="0" b2="0.00011775099847000092" bus1="CIRCEP6_S_VL6_TN1" connectableBus1="CIRCEP6_S_VL6_TN1" voltageLevelId1="CIRCEP6_S_VL6" bus2="MYDONP6_S_VL6_TN1" connectableBus2="MYDONP6_S_VL6_TN1" voltageLevelId2="MYDONP6_S_VL6" p1="123.34389461252186" q1="-11.425215115981318" p2="-122.04359588370379" q2="8.5247662797434778">
        <iidm:currentLimits1 permanentLimit="1890"/>
        <iidm:currentLimits2 permanentLimit="1890">
            <iidm:temporaryLimit name="IT20" acceptableDuration="1200" value="2171"/>
            <iidm:temporaryLimit name="IT10" acceptableDuration="600" value="2345"/>
            <iidm:temporaryLimit name="IT1" acceptableDuration="60"/>
        </iidm:currentLimits2>
    </iidm:line>
    <iidm:hvdcLine id="HERA9AJAX1" r="0.125" nominalV="320" convertersMode="SIDE_1_INVERTER_SIDE_2_RECTIFIER" activePowerSetpoint="322" maxP="1011" converterStation1="HERAP7_HERA_TER_1" converterStation2="AJAXP7_AJAX_TER_1"/>
    <iidm:hvdcLine id="HERA9AJAX1bis" r="0.125" nominalV="320" convertersMode="SIDE_1_INVERTER_SIDE_2_RECTIFIER" activePowerSetpoint="322" maxP="1011" converterStation1="HERAP7_HERA_TER_2" converterStation2="AJAXP7_AJAX_TER_2"/>
</iidm:network>
